*SPEF "IEEE 1481-1998" 
*DESIGN "openMSP430" 
*DATE "Sat Jun 21 03:59:48 2025" 
*VENDOR "TAU 2015 Contest" 
*PROGRAM "Benchmark Parasitic Generator" 
*VERSION "0.0" 
*DESIGN_FLOW "NETLIST_TYPE_VERILOG" 
*DIVIDER / 
*DELIMITER : 
*BUS_DELIMITER [ ] 
*T_UNIT 1 PS 
*C_UNIT 1 FF 
*R_UNIT 1 KOHM 
*L_UNIT 1 UH 
